#            CONFIGURATION MANAGEMENT OF EDF VERSION
# ======================================================================
# COPYRIGHT (C) 1991 - 2002  EDF R&D                  WWW.CODE-ASTER.ORG
# THIS PROGRAM IS FREE SOFTWARE; YOU CAN REDISTRIBUTE IT AND/OR MODIFY
# IT UNDER THE TERMS OF THE GNU GENERAL PUBLIC LICENSE AS PUBLISHED BY
# THE FREE SOFTWARE FOUNDATION; EITHER VERSION 2 OF THE LICENSE, OR
# (AT YOUR OPTION) ANY LATER VERSION.
#
# THIS PROGRAM IS DISTRIBUTED IN THE HOPE THAT IT WILL BE USEFUL, BUT
# WITHOUT ANY WARRANTY; WITHOUT EVEN THE IMPLIED WARRANTY OF
# MERCHANTABILITY OR FITNESS FOR A PARTICULAR PURPOSE. SEE THE GNU
# GENERAL PUBLIC LICENSE FOR MORE DETAILS.
#
# YOU SHOULD HAVE RECEIVED A COPY OF THE GNU GENERAL PUBLIC LICENSE
# ALONG WITH THIS PROGRAM; IF NOT, WRITE TO EDF R&D CODE_ASTER,
#    1 AVENUE DU GENERAL DE GAULLE, 92141 CLAMART CEDEX, FRANCE.
#
#
# ======================================================================

import os

import prefs

rep_cata = os.path.abspath(os.path.join(prefs.REPINI,'../Aster/Cata'))
rep_Pmw = os.path.join(prefs.REPINI,'../Pmw')

# Accès à la documentation Aster
path_doc              = os.path.join(rep_cata,'..','Doc')
exec_acrobat    =       "acroread"
# Utilisateur/Développeur
isdeveloppeur   =       "NON"
path_cata_dev   =       "/tmp/cata"
# Répertoire temporaire
rep_travail     =   "/tmp"
# Répertoire initial
initialdir=os.curdir

# Choix des catalogues
#rep_mat=os.path.join(rep_cata,'..','materiau')
rep_mat_v7="/local/cchris/ASTER/instals/materiaux/STA7"
rep_mat_v8="/local/cchris/ASTER/instals/materiaux/STA8"
rep_mat_v9="/local/cchris/ASTER/instals/materiaux/NEW9"

catalogues = (
               ('ASTER','petit',os.path.join(rep_cata,'petitcata'),'python'),
               ('ASTER','v5.9',os.path.join(rep_cata,'cataSTA5'),'asterv5'),
               ('ASTER','v6.8',os.path.join(rep_cata,'cataSTA6'),'python6'),
               ('ASTER','v6',os.path.join(rep_cata,'cataSTA6'),'python6'),
               ('ASTER','v7.7',os.path.join(rep_cata,'cataSTA7'),'python'),
               ('ASTER','v7',os.path.join(rep_cata,'cataSTA7'),'python'),
              ('ASTER','v8.4',os.path.join(rep_cata,'cataSTA8'),'python'),
              ('ASTER','v8',os.path.join(rep_cata,'cataSTA8'),'python'),
              ('ASTER','v9.1',os.path.join(rep_cata,'cataSTA9'),'python'),
              ('ASTER','v9',os.path.join(rep_cata,'cataSTA9'),'python','defaut'),
             )

