# MODIF  DATE 23/10/2006   AUTEUR VABHHTS J.PELLET 
# TITRE THERMO-PLASTICITE EN TRACTION SIMPLE (MODELISATION:C_PLAN)
#            CONFIGURATION MANAGEMENT OF EDF VERSION
# ======================================================================
# COPYRIGHT (C) 1991 - 2006  EDF R&D                  WWW.CODE-ASTER.ORG
# THIS PROGRAM IS FREE SOFTWARE; YOU CAN REDISTRIBUTE IT AND/OR MODIFY
# IT UNDER THE TERMS OF THE GNU GENERAL PUBLIC LICENSE AS PUBLISHED BY
# THE FREE SOFTWARE FOUNDATION; EITHER VERSION 2 OF THE LICENSE, OR
# (AT YOUR OPTION) ANY LATER VERSION.
#
# THIS PROGRAM IS DISTRIBUTED IN THE HOPE THAT IT WILL BE USEFUL, BUT
# WITHOUT ANY WARRANTY; WITHOUT EVEN THE IMPLIED WARRANTY OF
# MERCHANTABILITY OR FITNESS FOR A PARTICULAR PURPOSE. SEE THE GNU
# GENERAL PUBLIC LICENSE FOR MORE DETAILS.
#
# YOU SHOULD HAVE RECEIVED A COPY OF THE GNU GENERAL PUBLIC LICENSE
# ALONG WITH THIS PROGRAM; IF NOT, WRITE TO EDF R&D CODE_ASTER,
#    1 AVENUE DU GENERAL DE GAULLE, 92141 CLAMART CEDEX, FRANCE.
# ======================================================================
#

DEBUT(CODE=_F( NOM = 'HSNV100H',NIV_PUB_WEB='INTRANET'),IMPR_MACRO='OUI',DEBUG=_F(SDVERI='OUI'))

#......................................................................
# CAS TEST THERMOPLASTICITE ELEMENTAIRE
#......................................................................
# DEFINITION DES CARACTERISTIQUES DU MATERIAU
#

MAIL=LIRE_MAILLAGE( )

INCLUDE_MATERIAU(TYPE_MODELE='REF',
                 TYPE_VALE='NOMI',
                 NOM_AFNOR='Z2CND1712',
                 VARIANTE='A',
                 NOM_MATER='MONMAT',
                 UNITE_LONGUEUR='MM'
                 )

CHMAT=AFFE_MATERIAU(  MAILLAGE=MAIL,AFFE=(
                       _F(  TOUT='OUI',TEMP_REF=25, MATER = MONMAT),
               ),)

#

FIN()
