
# Test pour vérifier qu'une commande dont le concept 
# produit est nommé sansnom est considérée comme invalide
#plusieurs commandes : PROC, MACRO, OPER

DEBUT();

MA=LIRE_MAILLAGE();

kk=DEFI_MATERIAU(ELAS=_F(E=56.24,
                         NU=0.3,),);

uu=DEFI_MATERIAU(ELAS=_F(E=56.24,
                         NU=0.3,),);

SD_4=DEFI_MATERIAU(ELAS=_F(E=56.24,
                           NU=0.3,),);

sansnom=AFFE_CHAR_CINE(MODELE=None,);

MACR_ADAP_MAIL(ADAPTATION=_F(LIBRE='RAFFINEMENT',
                             MAILLAGE_N=MA,
                             MAILLAGE_NP1=CO('MAA'),
                             RESULTAT_N=None,
                             INDICATEUR=None,
                             NOM_CMP_INDICA=None,
                             CRIT_RAFF_ABS=1.0,),);

MACR_ADAP_MAIL(ADAPTATION=_F(LIBRE='RAFFINEMENT',
                             MAILLAGE_N=MA,
                             MAILLAGE_NP1=MAA,
                             RESULTAT_N=None,
                             INDICATEUR=None,
                             NOM_CMP_INDICA=None,
                             CRIT_RAFF_ABS=1.0,),);

PRE_CHAR_IDEAS(MODELE=None,);

FIN();
